Circuit: * C:\users\altur\My Documents\MyGit\GitRepo\Experimental_setup_schematic\Setup.asc

Direct Newton iteration for .op point succeeded.

Date: Thu May 09 02:21:38 2019
Total elapsed time: 0.077 seconds.

tnom = 27
temp = 27
method = modified trap
totiter = 8016
traniter = 8009
tranpoints = 3986
accept = 3548
rejected = 438
matrix size = 9
fillins = 1
solver = Normal
Matrix Compiler1: 422 bytes object code size  0.5/0.4/[0.4]
Matrix Compiler2: 771 bytes object code size  0.5/0.5/[0.4]

