Circuit: * C:\users\altur\My Documents\MyGit\GitRepo\Experimental_setup_schematic\Setup.asc

Direct Newton iteration for .op point succeeded.

Date: Thu May 09 02:24:45 2019
Total elapsed time: 0.087 seconds.

tnom = 27
temp = 27
method = modified trap
totiter = 7526
traniter = 7519
tranpoints = 3741
accept = 3307
rejected = 434
matrix size = 9
fillins = 1
solver = Normal
Matrix Compiler1: 422 bytes object code size  0.6/0.5/[0.4]
Matrix Compiler2: 771 bytes object code size  0.5/0.5/[0.5]

